  266
       -431.38507444
 O         -2.2140401217        0.8191332069       -1.4355974120
 O         -1.6507783378        2.9432685861        0.3338432810
 O         -2.3198749473       -1.1836374489        0.8013916170
 C         -2.9738742956        0.9534606128       -0.2448215050
 C         -2.2311500924        1.7578173574        0.8226403002
 C         -3.4023451466       -0.4100969619        0.3238884331
 H         -3.8795723799        1.4882689981       -0.5459412052
 H         -1.4124950328        1.1663980202        1.2391394946
 H         -2.9415291514        1.9810238364        1.6288676407
 H         -3.9425864078       -0.9757439638       -0.4394344648
 H         -4.0566786463       -0.2399332810        1.1790846154
 H         -1.2633351720        0.6700676528       -1.2277130233
 H         -2.2338917355        3.3450230957       -0.3511821768
 H         -1.7683900050       -1.4336878189        0.0389527146
 O         -4.2639981111       -2.0884826146        4.3685935597
 O         -5.6461545219        0.1096970264        2.6561422891
 O         -4.3809037138        0.6721086019        4.9447132677
 C         -5.4956117122       -1.4501644892        4.5459375643
 C         -6.1680259904       -1.0921876970        3.2010350582
 C         -5.3414598176       -0.2204032862        5.4553228449
 H         -6.1434958131       -2.1821276017        5.0421561856
 H         -7.2464002205       -0.9850836558        3.3690687640
 H         -5.9930021139       -1.9246341900        2.5082537722
 H         -4.9821790171       -0.5339765898        6.4381507826
 H         -6.3135480294        0.2772598361        5.5714489566
 H         -3.5859135813       -1.4180065102        4.1561356764
 H         -6.1709989956        0.3429886627        1.8680725961
 H         -4.6353720841        0.8244733418        4.0187054274
 O          2.1521099926       -5.1598929711        0.5371258241
 O          4.4140038607       -3.4259748167       -0.0873382410
 O          3.3760635384       -5.2100332661       -2.0434866929
 C          3.4665642641       -5.6469437616        0.3812879250
 C          4.4984419725       -4.5649903127        0.7276776215
 C          3.6143067136       -6.1750726939       -1.0561434480
 H          3.6377487065       -6.4964849655        1.0641640484
 H          5.5054635491       -4.9693129313        0.6006203338
 H          4.3621826778       -4.2923816144        1.7852840895
 H          2.9195401917       -7.0183136722       -1.1799847160
 H          4.6341252828       -6.5379976764       -1.2018415412
 H          2.1065012634       -4.6395136635        1.3619521238
 H          3.4867870571       -3.1108288618       -0.1234809603
 H          2.5055584446       -4.8032268404       -1.8471357167
 O          0.6780099199        0.7881215506        3.8115130050
 O          3.6834241783        0.6402063122        4.6424811944
 O          1.7765528786       -1.0538859277        5.7625778364
 C          1.2923682142        1.2431723326        5.0088991269
 C          2.7323569506        1.6879559271        4.6923021173
 C          1.2101193643        0.1804836653        6.1179820620
 H          0.7534276892        2.1275557110        5.3759246487
 H          3.0704223558        2.3580984942        5.4854357793
 H          2.7184497493        2.2321816544        3.7403340009
 H          0.1566915681       -0.0159404808        6.3356025345
 H          1.6845173697        0.5867223349        7.0217064633
 H         -0.2169238196        0.4678398692        4.0295976994
 H          3.4518242305        0.0712525806        3.8755261629
 H          2.7110201724       -0.8888045426        5.5670063550
 O          2.0586194139       -1.8572299189       -3.1077404381
 O          4.7294002016       -2.9991490129       -3.1208439790
 O          0.4327767794       -2.2915440510       -5.3233545497
 C          2.5149464755       -2.6902725554       -4.1494605158
 C          4.0399615596       -2.6762234238       -4.3016708097
 C          1.8273598078       -2.2941481188       -5.4684809914
 H          2.1963806027       -3.7004120541       -3.8728883018
 H          4.3726581837       -1.6712619699       -4.5841807148
 H          4.3137897114       -3.3713781336       -5.1070905391
 H          2.0610781671       -3.0168839859       -6.2515162897
 H          2.1855620615       -1.3016627246       -5.7832902299
 H          2.3854302977       -0.9518484581       -3.2475965755
 H          4.3326458966       -3.7918144673       -2.7027356259
 H          0.2125431385       -1.6734927268       -4.6056489398
 O          0.0801350248        2.2139729634       -3.1590914710
 O         -0.5481255612        2.4708653316       -5.8720218727
 O          2.4433623134        0.8873959580       -3.0734143034
 C          1.0727157414        2.6424449952       -4.0720359155
 C          0.7149528207        2.0418338223       -5.4332947596
 C          2.4624988097        2.2073785961       -3.5783600331
 H          1.0555670408        3.7381504157       -4.1593547205
 H          0.7474991714        0.9444664688       -5.3605265156
 H          1.4417725779        2.3609347040       -6.1840919814
 H          2.7927299942        2.8943517313       -2.7932532072
 H          3.1839465601        2.2305056970       -4.3957171980
 H          0.3002290226        2.5888423613       -2.2836626553
 H         -1.1285198651        2.5447255491       -5.0934810988
 H          1.7230341078        0.8489532340       -2.4111353971
 O          1.9191025037       -2.1041299068        0.0067309397
 O          2.6990912922       -0.7080918345        2.5143786042
 O          0.4331197655        0.1968161005       -1.1022532222
 C          2.3144621622       -0.7490816190        0.0857292571
 C          3.2854538408       -0.4904511080        1.2392006926
 C          1.1014764394        0.1754064437        0.1480859433
 H          2.8679386551       -0.5583622698       -0.8357230467
 H          3.6619528904        0.5310944039        1.1683934995
 H          4.1177961195       -1.1890823588        1.1573492345
 H          1.4148524331        1.1992699725        0.3552061009
 H          0.4095453643       -0.1724922755        0.9269748213
 H          1.2666380388       -2.3107238356        0.7059208490
 H          1.9867400536       -0.0531322494        2.6393731916
 H          0.2937141338       -0.7286306495       -1.3718169066
 O         -3.7689908965       -0.5188883939       -3.2603364639
 O         -1.0967034268       -0.3002785261       -3.8650481601
 O         -2.5878257545        2.3397842803       -3.7842671521
 C         -3.4413746239        0.1199952298       -4.4843981949
 C         -2.0232378389       -0.2898456690       -4.9313432636
 C         -3.6450336233        1.6421475276       -4.3906300722
 H         -4.1527175211       -0.2558972769       -5.2278486727
 H         -1.7012223608        0.3681462705       -5.7416756498
 H         -2.0546818203       -1.3165367368       -5.3057148881
 H         -4.5871691706        1.8266447547       -3.8561393155
 H         -3.7330323494        2.0502448039       -5.3994090293
 H         -3.1054283916       -0.2249814080       -2.5932269104
 H         -0.8055922373        0.6093417617       -3.6496672701
 H         -2.4377864891        2.0075355460       -2.8787796137
 O         -1.8119155825       -4.8549366351        1.4611536231
 O         -3.7522242496       -5.3041723111       -0.6466636516
 O         -4.3024218641       -3.4140602356        1.3302925574
 C         -3.0486059683       -5.4964092666        1.6996003617
 C         -3.5882517964       -6.1805246079        0.4341017104
 C         -4.0517263747       -4.4601996712        2.2372894980
 H         -2.9178731209       -6.2718658875        2.4728627096
 H         -4.5409587052       -6.6703193933        0.6905938432
 H         -2.8817235496       -6.9502415838        0.1073433339
 H         -3.7009688536       -4.0605874671        3.1945457625
 H         -5.0101980610       -4.9572738311        2.4065528922
 H         -1.3212001245       -5.3683759832        0.7777554691
 H         -4.1574805255       -4.4827769454       -0.3083710172
 H         -3.5009198722       -2.8739500368        1.2442300828
 O         -7.0110174806        0.7316884994        0.3086787738
 O         -7.8809999759        1.9171300256       -2.3599519717
 O         -5.5557212640        2.6917956028       -1.2987435060
 C         -7.4697371828        2.0481988599        0.0775684314
 C         -8.4727561884        2.1029793567       -1.0929299596
 C         -6.3006718029        3.0216432530       -0.1438795312
 H         -7.9979913630        2.3417261378        0.9903026643
 H         -8.9345080776        3.0922110868       -1.1194141353
 H         -9.2551036618        1.3532287783       -0.9190457378
 H         -5.6092210011        2.9659296010        0.7007230444
 H         -6.6879889350        4.0436187785       -0.2239952770
 H         -6.5831092500        0.3992929661       -0.5059327176
 H         -7.4920982250        1.0244631796       -2.4022071408
 H         -6.1984952609        2.6546646296       -2.0317987208
 O         -0.1844520596       -2.6019765364        1.7989231940
 O          2.2130867107       -3.6074778208        2.8915390788
 O         -1.7804618628       -1.0271551080        3.5939931784
 C          0.1320825093       -2.4270174281        3.1652480098
 C          1.0320682897       -3.5563935031        3.6665384336
 C         -1.1315350915       -2.2177948649        3.9961715527
 H          0.7074536549       -1.5006091692        3.2177333187
 H          0.5421498946       -4.5264750519        3.5518177977
 H          1.2728171244       -3.3854904883        4.7212240604
 H         -0.8682232333       -2.0985052772        5.0475346713
 H         -1.8027140183       -3.0781883075        3.8906239926
 H         -0.7433450824       -3.3958725665        1.7110960817
 H          2.5432877772       -2.6960479343        2.8057120852
 H         -1.9095355295       -1.0783361575        2.6261804871
 O          5.7110683749        1.1766229392        2.7327439435
 O          7.5869736460       -1.9416656725        2.9056470211
 O          8.1430027595        2.3039559148        3.5933561539
 C          6.8714714861        0.3957256030        2.8839908086
 C          6.5382655058       -1.0719711310        3.2218265176
 C          7.8067150797        0.9748450428        3.9489546296
 H          7.3781186426        0.4289606615        1.9126913035
 H          5.6234971265       -1.3472865785        2.6859843438
 H          6.3545331674       -1.1691259325        4.2968542252
 H          8.6967112075        0.3399254055        4.0072708909
 H          7.2943399727        0.9687418148        4.9215989786
 H          5.1846153343        1.1392157316        3.5515097223
 H          7.5872333596       -2.0636047543        1.9404609130
 H          8.8313677898        2.6272709821        4.1821307425
 O         -5.5849353924        5.5995545444       -2.1308083582
 O         -4.0648721006        4.7961990008       -4.1673390933
 O         -3.2098613489        4.1194218103       -1.5125570230
 C         -4.3049536408        6.1879759615       -2.2021925798
 C         -3.7951298086        6.0763468784       -3.6552310992
 C         -3.3492550439        5.4931609860       -1.2166169884
 H         -4.3950169536        7.2407900564       -1.9132816378
 H         -2.7301816938        6.3226766837       -3.7051599217
 H         -4.3511469901        6.7770929580       -4.2843489652
 H         -3.7211547969        5.6248802071       -0.1934702355
 H         -2.3536329094        5.9340472480       -1.2926460619
 H         -5.6335908521        4.9997697121       -2.8953377045
 H         -3.4154917299        4.1638738674       -3.8107385939
 H         -4.1024996926        3.7162020277       -1.4808825774
 O          5.5865431771        3.4358259659        1.1348543431
 O          8.7288471994        3.0341815563        0.9344614968
 O          4.6995909538        3.6455412683       -1.5982329380
 C          6.4882563283        3.4603483233        0.0409253465
 C          7.8624953369        4.0244896134        0.4465966377
 C          5.8308638985        4.2863940055       -1.0750904177
 H          6.6427693186        2.4382949596       -0.3329205642
 H          7.7142371008        4.8267900293        1.1805583077
 H          8.3555093632        4.4434165918       -0.4339524390
 H          6.5687879838        4.4784560930       -1.8642269893
 H          5.4878138786        5.2406002892       -0.6678546847
 H          5.8242674229        2.7239563942        1.7594137016
 H          8.4259411130        2.7465954094        1.8134445868
 H          4.9892199752        2.8344673880       -2.0597446775
 O          4.8352371208       -0.8487163146       -1.4613631593
 O          5.4448502561        1.2911038708       -2.9433723819
 O          6.8513893685       -2.1256989597        0.1751600586
 C          6.1396901559       -0.3502337091       -1.3217194759
 C          6.5048371664        0.4327428649       -2.5944256125
 C          7.1538586913       -1.4582110815       -1.0226227329
 H          6.0901657331        0.3352940239       -0.4666892366
 H          6.6946425466       -0.2780160275       -3.4119717814
 H          7.3951214272        1.0462579531       -2.4460876838
 H          8.1508005207       -1.0264077923       -0.9051002585
 H          7.1657445948       -2.1666108377       -1.8624226972
 H          4.8391995040       -1.6571396174       -2.0216938107
 H          4.6184874743        0.8032780466       -2.7598436851
 H          5.9684790501       -2.5348220140        0.0636805837
 O         -6.2954038581       -0.3698939505       -2.1705684069
 O         -4.8405902437       -2.7611041823       -1.4280634312
 O         -5.4798461902       -2.6718331478       -4.0490010206
 C         -6.8619224719       -1.6677663829       -2.2610096981
 C         -6.2210998397       -2.6150029090       -1.2298767899
 C         -6.7626993931       -2.2189348328       -3.6960086999
 H         -7.9220183098       -1.5478896546       -2.0133092510
 H         -6.7354374003       -3.5822736104       -1.2747350890
 H         -6.3403758740       -2.1977464528       -0.2270670950
 H         -7.1046719979       -1.4385926705       -4.3914763087
 H         -7.4236808615       -3.0828791781       -3.7928162822
 H         -5.3575609027       -0.4154896140       -2.4643242923
 H         -4.7142675700       -3.2201940346       -2.2729857560
 H         -4.8427539935       -1.9478984663       -3.9304570354
 O         -0.5231329045        3.3310251905        3.0424880918
 O         -1.8064687102        1.7673655782        4.9087004731
 O         -2.6891493026        4.8214801017        2.2256873790
 C         -1.3181199421        3.9463170695        4.0257132729
 C         -2.4032451769        2.9909482489        4.5336443015
 C         -1.9509370770        5.1777775867        3.3603369979
 H         -0.6900249279        4.2698601068        4.8715240416
 H         -3.1310876018        2.8326425402        3.7299971851
 H         -2.9199598118        3.4492858495        5.3857520269
 H         -1.1453973360        5.8753802089        3.0912481788
 H         -2.6355679734        5.6725726914        4.0522619911
 H         -0.2861610853        2.4378770190        3.3395927759
 H         -2.5277104275        1.1399303790        5.0728972126
 H         -2.1137117384        4.2412825046        1.6906911419
 O          2.8491827728        2.7611555150        1.4031791804
 O          0.8717244570        3.2737732205       -0.7594133523
 O          3.7931775208        5.6478241679        1.3756826665
 C          2.0372610291        3.9129889038        1.2893370037
 C          1.7254109709        4.2379845168       -0.1769521609
 C          2.6621510127        5.1195396735        2.0124207933
 H          1.1031138524        3.6623762777        1.8026280211
 H          2.6473302190        4.2299152752       -0.7635939468
 H          1.2705952254        5.2344821056       -0.2350511298
 H          2.9040571197        4.8130301316        3.0415628711
 H          1.9287164146        5.9279835583        2.0574856288
 H          3.7197866234        2.9664082577        1.0168550706
 H          0.0634650084        3.1954925315       -0.2170408430
 H          4.4644726873        4.9467009582        1.3114323549
 O          0.9589115145       -4.0150137863       -1.7166668998
 O         -1.0828014770       -2.0004305459       -1.6407238262
 O         -0.3378870977       -6.0312230780       -0.5058764660
 C         -0.3381049608       -4.2777944822       -2.1958677028
 C         -1.3759115033       -3.3804817055       -1.5163193946
 C         -0.6165558073       -5.7512907024       -1.8575151411
 H         -0.3803367226       -4.1343232826       -3.2877165768
 H         -1.3630591150       -3.5851746175       -0.4461319425
 H         -2.3684598861       -3.6079211106       -1.9113606155
 H          0.0016322723       -6.3876995238       -2.5032317815
 H         -1.6698015560       -5.9814040287       -2.0241535981
 H          1.1554973946       -3.0624853650       -1.7249128463
 H         -1.2064625143       -1.6963671877       -2.5569698293
 H          0.5537775315       -5.6789989306       -0.3023364359
