  315
       -372.67809523
 O         -2.7703967317       -0.8481234794        3.5377114108
 C         -2.1091847581       -0.5469708106        2.2999502155
 C         -1.3863393001       -1.8219626289        1.8670024324
 C         -3.1567060135       -0.1282350750        1.2655955033
 C         -1.1013307504        0.5818376378        2.5229389248
 H         -0.8592586136       -1.6499991600        0.9331014554
 H         -0.6647666726       -2.1142096757        2.6254062097
 H         -2.0955875120       -2.6345560439        1.7356322764
 H         -3.8486700816       -0.9406925930        1.0628079922
 H         -2.6813286394        0.1591368266        0.3325781669
 H         -3.7235181892        0.7195148403        1.6450951794
 H         -1.6148943494        1.4786566636        2.8601670979
 H         -0.3701030779        0.2974008913        3.2742188709
 H         -0.5764817585        0.8037318033        1.5982663738
 H         -3.0455559582        0.0144552095        3.9313063679
 O         -1.9214801629        1.6128012508       -4.5484179673
 C         -2.1209365540        1.0484025780       -5.8397515194
 C         -2.3947636977       -0.4522228887       -5.7124756865
 C         -3.2952643809        1.7481974703       -6.5324905723
 C         -0.8275938198        1.2750134272       -6.6236974765
 H         -2.5442109704       -0.8960218618       -6.6926054183
 H         -1.5484804249       -0.9386986672       -5.2356355814
 H         -3.2808487778       -0.6265757006       -5.1083555378
 H         -3.4893474358        1.2959061905       -7.5011334696
 H         -3.0736706777        2.8028617252       -6.6757394052
 H         -4.1918615307        1.6658310996       -5.9219567154
 H         -0.5714774799        2.3314487861       -6.6242936457
 H         -0.0165254159        0.7163303818       -6.1655405810
 H         -0.9506691139        0.9404352628       -7.6498178242
 H         -2.7215854375        1.4622874683       -4.0074008815
 O          1.1339195129        4.4675258412       -2.9899220110
 C          2.4013750270        4.9243024758       -3.4545401713
 C          3.5026203335        3.9724207598       -2.9883936090
 C          2.3903501760        5.0210629646       -4.9881510423
 C          2.6314677529        6.3140942813       -2.8571920088
 H          3.5040746522        3.9110718590       -1.9021210560
 H          3.3399624363        2.9792126099       -3.3998605451
 H          4.4743104368        4.3290267522       -3.3184946280
 H          1.7103298888        5.8051952837       -5.3149524891
 H          2.0690588919        4.0797607976       -5.4278362521
 H          3.3857028754        5.2533944485       -5.3563645493
 H          3.5148660425        6.7660052926       -3.2992175503
 H          1.7731043268        6.9519384899       -3.0579191728
 H          2.7779932809        6.2373398593       -1.7834547849
 H          1.0774326102        3.5040008745       -3.1310926808
 O          0.6153427451        1.5737594322       -3.3053132819
 C          0.2610814737        1.1321335806       -1.9881374247
 C          1.5546417920        1.0057332524       -1.1838804888
 C         -0.6666736543        2.1630159068       -1.3441268552
 C         -0.4437843266       -0.2234033896       -2.0785452302
 H          2.2177283130        0.2740968749       -1.6378697969
 H          2.0622200672        1.9656870201       -1.1342557327
 H          1.3272098379        0.6756027312       -0.1741416789
 H         -0.1438952582        3.1048713550       -1.2087103933
 H         -1.0062385574        1.8116896389       -0.3750694243
 H         -1.5341515249        2.3289360671       -1.9766527320
 H          0.2078681459       -0.9597250558       -2.5424502555
 H         -0.7038086310       -0.5738048612       -1.0844925704
 H         -1.3575297162       -0.1332920752       -2.6604461696
 H         -0.2208340910        1.6469458896       -3.8101576212
 O         -5.0123692508       -2.8880263967        0.0279094187
 C         -4.3502863488       -3.6496251097       -0.9682956900
 C         -5.3642284221       -3.8744753635       -2.0938578022
 C         -3.1400221501       -2.8681845648       -1.4998181875
 C         -3.8881592386       -4.9940955877       -0.4000260308
 H         -5.7365374212       -2.9171167586       -2.4469334318
 H         -4.9053481980       -4.4092245199       -2.9205590996
 H         -6.2081181323       -4.4501616718       -1.7219640949
 H         -2.6975946572       -3.3838512750       -2.3464750031
 H         -2.3893867797       -2.7629318548       -0.7217114323
 H         -3.4480642810       -1.8742599874       -1.8137090828
 H         -3.3593654778       -5.5644599378       -1.1592969119
 H         -3.2222846389       -4.8376881755        0.4472452864
 H         -4.7429498240       -5.5747658983       -0.0607153860
 H         -4.6129356441       -3.0745503894        0.8976601869
 O         -1.2274566503        1.0249594690        6.5359945653
 C         -0.1559882085        1.9306614798        6.7953322040
 C         -0.7568364095        3.0980046747        7.5812910137
 C          0.9233642008        1.2263268761        7.6202882439
 C          0.4441954289        2.4251283355        5.4771698703
 H         -1.4635111243        3.6434042398        6.9611995029
 H         -1.2764891122        2.7246845064        8.4607942234
 H          0.0267593727        3.7794350427        7.8990028799
 H          1.6941048180        1.9336300666        7.9132674368
 H          1.3848906159        0.4414242324        7.0250814274
 H          0.4877985629        0.7932663825        8.5188872086
 H          1.1627937054        3.2165612982        5.6698143002
 H          0.9558161509        1.6071037373        4.9767293339
 H         -0.3374071737        2.8107674804        4.8266634226
 H         -0.8598617584        0.2182259946        6.1209365595
 O         -0.7263634577       -1.4514112346        5.2709719604
 C         -1.0699553945       -2.5374707081        6.1279778300
 C         -2.3196049919       -2.1705307331        6.9322615963
 C         -1.3317767139       -3.7897212180        5.2855258825
 C          0.1150242806       -2.7570930933        7.0683199625
 H         -2.5995121461       -2.9843572978        7.5948294310
 H         -2.1335343860       -1.2789899692        7.5260374444
 H         -3.1463407470       -1.9688404459        6.2564993475
 H         -2.1589876041       -3.6191990978        4.5996709782
 H         -1.5769231068       -4.6312152732        5.9272056660
 H         -0.4483366658       -4.0450466918        4.7036718303
 H         -0.1022704439       -3.5655888848        7.7601640183
 H          1.0063843243       -3.0096048904        6.5014631273
 H          0.3128746287       -1.8507009373        7.6341028265
 H         -1.4720586530       -1.3113171971        4.6427496911
 O          4.5819201324       -4.4533887335        1.6477697708
 C          5.1630350279       -5.5377068325        2.3554016275
 C          5.8107678537       -6.5212296423        1.3744367048
 C          6.2195034467       -4.9477336725        3.2929557484
 C          4.0840272233       -6.2671817970        3.1640400741
 H          5.0555090770       -6.9159413721        0.6986866310
 H          6.5779857961       -6.0226014228        0.7863685886
 H          6.2681463773       -7.3469032891        1.9128128889
 H          6.9863800789       -4.4331398435        2.7187081906
 H          6.6882141990       -5.7362498832        3.8745417349
 H          5.7596768409       -4.2337783312        3.9717279729
 H          4.5223219298       -7.0818370957        3.7340016071
 H          3.5983845949       -5.5784502337        3.8509677258
 H          3.3349739965       -6.6732976773        2.4884057780
 H          3.8949382520       -4.8186866613        1.0441911118
 O         -3.1976051755        1.5644856951        4.7113854967
 C         -4.4673276186        1.8670329102        5.2719892998
 C         -5.4253265869        2.0576859769        4.0941213537
 C         -4.9295158383        0.7121664991        6.1657908672
 C         -4.3794210858        3.1545710670        6.0958854848
 H         -6.4235234132        2.2924447815        4.4509544655
 H         -5.0729706663        2.8683536271        3.4620279230
 H         -5.4721355941        1.1514847082        3.4950763335
 H         -4.1987247440        0.5375858417        6.9525989870
 H         -5.0345306676       -0.1982723857        5.5802738236
 H         -5.8884715422        0.9432790762        6.6206165765
 H         -5.3647262605        3.4499281924        6.4455167028
 H         -3.7346387957        3.0008928374        6.9578202195
 H         -3.9682568894        3.9574868292        5.4876422571
 H         -2.5310390249        1.4770277778        5.4331445292
 O          2.7541353571       -5.4150036088       -0.1722072588
 C          1.4918897129       -4.7624377955       -0.1052957857
 C          0.4507343865       -5.5977378072       -0.8590984250
 C          1.1163639485       -4.6674959431        1.3742484196
 C          1.5965070087       -3.3634131863       -0.7189013910
 H          0.3395125344       -6.5712567549       -0.3868658255
 H         -0.5132544665       -5.0958282047       -0.8603891601
 H          0.7799582551       -5.7520358566       -1.8841258828
 H          1.1241023402       -5.6579738748        1.8226608330
 H          0.1225215152       -4.2435815224        1.4806042440
 H          1.8335823457       -4.0411694798        1.8961832642
 H          1.7776707691       -3.4352556245       -1.7879242811
 H          0.6748404049       -2.8123959963       -0.5570621074
 H          2.4229341786       -2.8185096941       -0.2690760636
 H          3.0328249273       -5.4071175128       -1.1102240217
 O          5.0773359595       -2.4505933032       -0.3064572976
 C          6.3528323187       -1.8583585431       -0.1451519200
 C          6.4738614743       -1.2611392990        1.2613065745
 C          7.4515365976       -2.9084606732       -0.3568117292
 C          6.4636396535       -0.7536257884       -1.1974959789
 H          5.7193584353       -0.4908579611        1.3972762791
 H          6.3202709751       -2.0402220098        2.0056950162
 H          7.4565170405       -0.8211858089        1.4096142582
 H          8.4351448760       -2.4534176733       -0.2751326107
 H          7.3521688982       -3.3603614068       -1.3403424822
 H          7.3656247690       -3.6919384382        0.3932440633
 H          5.6447188208       -0.0504002261       -1.0750437418
 H          7.4066833883       -0.2251351332       -1.0923610483
 H          6.4036816642       -1.1821415381       -2.1938012583
 H          4.9691266486       -3.1282166613        0.3850008411
 O          1.8204003174       -3.4519014950       -4.5635493560
 C          0.6358903354       -3.9467450051       -5.1766458988
 C          0.8301867129       -5.4491930480       -5.3894774527
 C         -0.5596300868       -3.6960063041       -4.2512758066
 C          0.4164669085       -3.2456985016       -6.5202135029
 H         -0.0620867742       -5.8811730727       -5.8335447063
 H          1.6733100326       -5.6273394718       -6.0520030328
 H          1.0279505749       -5.9433748311       -4.4419871602
 H         -1.4743348110       -4.0681631878       -4.7046589726
 H         -0.6686882920       -2.6309567753       -4.0630172148
 H         -0.4038471367       -4.1980489775       -3.3003986534
 H          0.3671619997       -2.1694299761       -6.3718741804
 H          1.2411103015       -3.4648395175       -7.1948450984
 H         -0.5092905242       -3.5829508149       -6.9781907029
 H          1.7780199097       -2.4765415886       -4.5714434827
 O          3.2595638664       -5.2989819186       -2.9355867043
 C          4.6114817859       -5.2577757194       -3.3740256119
 C          5.4274424952       -6.0650757582       -2.3652464467
 C          4.7117331702       -5.8808207255       -4.7715482767
 C          5.0958437014       -3.8078343218       -3.4081103973
 H          5.4036749110       -5.5690360956       -1.3998587273
 H          5.0057097008       -7.0614270664       -2.2589646843
 H          6.4589123632       -6.1513710181       -2.6953497233
 H          4.3333532532       -6.9003877365       -4.7525587351
 H          5.7439445029       -5.8937827131       -5.1109688221
 H          4.1185202223       -5.3030419473       -5.4772849704
 H          4.5141707641       -3.2463942976       -4.1353616959
 H          4.9698368825       -3.3503930714       -2.4283645208
 H          6.1438523866       -3.7641035208       -3.6943789903
 H          2.7509312278       -4.6820766094       -3.4941809299
 O          1.7371951758       -0.5808475479       -4.8407848157
 C          3.0173825173       -0.1510974650       -5.2980458439
 C          3.4953310044       -1.1614929037       -6.3415379065
 C          2.8941804927        1.2349675474       -5.9376513316
 C          3.9891954357       -0.0949104937       -4.1148182599
 H          3.5823324005       -2.1513475653       -5.9034532326
 H          2.7853520680       -1.2087891462       -7.1635136141
 H          4.4641958561       -0.8613596351       -6.7301175012
 H          3.8771634961        1.6325786688       -6.1740001846
 H          2.3963237369        1.9083655101       -5.2443929623
 H          2.3073957709        1.1838276543       -6.8519615525
 H          3.7004258752        0.6971441150       -3.4281239521
 H          3.9801146912       -1.0375160635       -3.5737396738
 H          4.9997925245        0.1006345677       -4.4614660650
 H          1.4003257144        0.1038062949       -4.2274832924
 O         -1.7539086885        5.1004193313       -2.5741761094
 C         -2.1240128149        5.6847952974       -3.8202181394
 C         -1.6327424418        7.1372088611       -3.8594712499
 C         -1.5009125306        4.8839499847       -4.9626916708
 C         -3.6492825157        5.6340726675       -3.9166167807
 H         -1.9025769123        7.6069432398       -4.8012401994
 H         -2.0747855005        7.7056438199       -3.0440318141
 H         -0.5505954991        7.1639016178       -3.7507757626
 H         -0.4181380804        4.9507481336       -4.9116387767
 H         -1.8327439530        5.2666456385       -5.9245563534
 H         -1.7847832484        3.8390704454       -4.8695329631
 H         -3.9777736450        6.0696830488       -4.8561521104
 H         -3.9884689520        4.6032382919       -3.8651632544
 H         -4.0989302735        6.1887675180       -3.0983190718
 H         -0.7986840919        4.9253551462       -2.6083511356
 O          1.9189318602       -0.4965479040        4.9018722678
 C          2.8735090925       -1.0953558358        4.0371868708
 C          4.2094962973       -0.4270044695        4.3656565859
 C          2.9617886378       -2.6031165685        4.2883308766
 C          2.4972950963       -0.8441559471        2.5719539672
 H          5.0059492648       -0.8547585182        3.7662841565
 H          4.1439190528        0.6398336713        4.1692037539
 H          4.4390323908       -0.5653604983        5.4193603287
 H          1.9803708702       -3.0611589463        4.1678944827
 H          3.3170144706       -2.8011048135        5.2982011415
 H          3.6435117463       -3.0566264323        3.5739167180
 H          1.5547483743       -1.3314304496        2.3345060277
 H          2.3928865864        0.2229902652        2.3965122275
 H          3.2654794517       -1.2379635850        1.9131912551
 H          1.0903846987       -1.0044869270        4.8864139621
 O          3.3439752928        4.1699479398        0.3043835596
 C          3.7778996527        3.5599257836        1.5076283346
 C          2.5658686412        3.2346449031        2.3891523024
 C          4.5169421757        2.2806883615        1.1126546151
 C          4.7244921954        4.5036872219        2.2593095031
 H          2.8704243428        2.6960750083        3.2817260774
 H          2.0702001025        4.1546748728        2.6916565670
 H          1.8563401170        2.6261330497        1.8333508191
 H          4.9178145756        1.7918597562        1.9955977255
 H          5.3343076627        2.5245150458        0.4389487028
 H          3.8413010809        1.6007987655        0.6018018208
 H          5.5777962454        4.7502800545        1.6318796187
 H          4.2044624736        5.4249733273        2.5141164110
 H          5.0821017092        4.0372273363        3.1733072255
 H          2.8973466887        4.9989190537        0.5375999877
 O         -4.2832486342       -3.1623620777        2.7597621928
 C         -5.5862273354       -3.2799373938        3.3206992899
 C         -6.2228311293       -4.5225523126        2.6970763787
 C         -5.4820211286       -3.4491184685        4.8401279457
 C         -6.4105185249       -2.0348467771        2.9802788962
 H         -6.3606843564       -4.3699242710        1.6305978063
 H         -5.5752175008       -5.3823690704        2.8495753530
 H         -7.1885124871       -4.7193078150        3.1532928395
 H         -5.0430472314       -2.5617159797        5.2912234993
 H         -4.8542375385       -4.3047059461        5.0778103201
 H         -6.4661521727       -3.6040173080        5.2731188957
 H         -7.4194851343       -2.1297252536        3.3713845919
 H         -5.9515356559       -1.1488130372        3.4153424520
 H         -6.4592585330       -1.9079824756        1.9013823641
 H         -3.8669551536       -2.3463351166        3.0969459740
 O         -3.8973354628        3.7813847865       -1.1912646284
 C         -4.0810386296        4.4307834134        0.0603852855
 C         -3.9375040574        5.9464286449       -0.1089199517
 C         -5.4947129772        4.1008061357        0.5476634896
 C         -3.0455797940        3.9126645449        1.0647599859
 H         -3.9841356696        6.4438657775        0.8564837102
 H         -2.9859399623        6.1776599800       -0.5828639248
 H         -4.7391822881        6.3313816090       -0.7356876436
 H         -6.2267280097        4.3997945525       -0.1985286225
 H         -5.7035251914        4.6295264531        1.4735816915
 H         -5.5972122905        3.0334138222        0.7234439768
 H         -3.1793224013        4.3888281624        2.0323763258
 H         -3.1543382583        2.8387986195        1.1832201495
 H         -2.0422045877        4.1166963751        0.7049710943
 H         -3.1366402473        4.1959685636       -1.6407135275
 O         -4.0802856115        1.3459647882       -2.7430063915
 C         -5.4705152284        1.0283816525       -2.7081328323
 C         -6.2806100418        2.2800620503       -3.0602318402
 C         -5.7212324823       -0.0767388793       -3.7343490370
 C         -5.8478516052        0.5304103575       -1.3097234909
 H         -6.0476701646        3.0738927702       -2.3548196966
 H         -6.0276380464        2.6243591919       -4.0613625211
 H         -7.3457393056        2.0698541571       -3.0229809626
 H         -5.5377039082        0.2832154549       -4.7438545210
 H         -6.7519141460       -0.4134508047       -3.6695607647
 H         -5.0633794587       -0.9193528294       -3.5362640198
 H         -5.5627922489        1.2718070927       -0.5685175740
 H         -6.9191358753        0.3627610711       -1.2439753524
 H         -5.3374130245       -0.4015215614       -1.0809893508
 H         -3.9505854196        2.0915031871       -2.1293273152
 O          2.1136602967        6.6723128394        1.1945986131
 C          0.7306511990        6.8692455811        0.8970429949
 C         -0.0627889314        7.0054874519        2.2018950051
 C          0.5578442322        8.1279251994        0.0428023413
 C          0.2770652751        5.6326335179        0.1272323469
 H          0.0964091200        6.1302511899        2.8277411908
 H          0.2525793702        7.8889931611        2.7553872360
 H         -1.1237251446        7.0915019702        1.9863505411
 H         -0.4839372089        8.2496408238       -0.2390165585
 H          1.1576092711        8.0490486955       -0.8600441352
 H          0.8726058417        9.0139742061        0.5933704331
 H          0.8954782403        5.4846782183       -0.7524925246
 H          0.3602453711        4.7531554742        0.7598071180
 H         -0.7525528563        5.7539104332       -0.1915943818
 H          2.4583745508        7.4712462449        1.6069385628
